Version 4
SHEET 1 880 1060
WIRE 352 0 256 0
WIRE 256 32 256 0
WIRE 352 32 352 0
WIRE 256 176 256 112
WIRE 256 176 144 176
WIRE 352 176 256 176
WIRE 352 336 352 256
WIRE 432 336 352 336
WIRE 688 336 496 336
WIRE -48 384 -80 384
WIRE 144 384 144 256
WIRE 144 384 16 384
WIRE 288 384 144 384
WIRE 688 416 688 336
WIRE -80 496 -80 384
WIRE 144 512 144 384
WIRE 352 512 352 432
WIRE 688 528 688 496
WIRE 352 608 352 592
WIRE 464 608 352 608
WIRE 352 640 352 608
WIRE 464 640 464 608
WIRE -80 656 -80 576
WIRE 144 736 144 592
WIRE 272 736 144 736
WIRE 352 736 352 720
WIRE 352 736 272 736
WIRE 464 736 464 704
WIRE 464 736 352 736
WIRE 272 800 272 736
FLAG 272 880 0
FLAG 352 32 0
FLAG -80 656 0
FLAG 688 528 0
SYMBOL npn 288 336 R0
SYMATTR InstName Q1
SYMATTR Value BC547B
SYMBOL res 128 160 R0
SYMATTR InstName RB1
SYMATTR Value 318k
SYMBOL res 336 160 R0
SYMATTR InstName RL1
SYMATTR Value 2.38k
SYMBOL res 336 496 R0
SYMATTR InstName RE1
SYMATTR Value 26
SYMBOL res 128 496 R0
SYMATTR InstName RB2
SYMATTR Value 70k
SYMBOL cap 16 368 R90
WINDOW 0 0 32 VBottom 2
WINDOW 3 32 32 VTop 2
SYMATTR InstName C1
SYMATTR Value 10µ
SYMBOL cap 496 320 R90
WINDOW 0 0 32 VBottom 2
WINDOW 3 32 32 VTop 2
SYMATTR InstName C2
SYMATTR Value 10µ
SYMBOL cap 448 640 R0
SYMATTR InstName C3
SYMATTR Value 50µ
SYMBOL res 336 624 R0
SYMATTR InstName RE2
SYMATTR Value 250
SYMBOL voltage 256 128 R180
WINDOW 0 24 96 Left 2
WINDOW 3 24 16 Left 2
WINDOW 123 0 0 Left 0
WINDOW 39 0 0 Left 0
SYMATTR InstName VCC1
SYMATTR Value 5v
SYMBOL voltage 272 784 R0
WINDOW 123 0 0 Left 0
WINDOW 39 0 0 Left 0
SYMATTR InstName V1
SYMATTR Value -5
SYMBOL voltage -80 480 R0
WINDOW 123 0 0 Left 0
WINDOW 39 0 0 Left 0
SYMATTR InstName V2
SYMATTR Value SINE(0 72m 5k)
SYMBOL res 672 400 R0
SYMATTR InstName R_Load
SYMATTR Value 5.1k
TEXT -112 904 Left 2 !.tran 5m
